.MODEL 2N3906 PNP(IS=40.7f NF=1 BF=230 VAF=115 IKF=0.27 ISE=3.5f NE=1.25
+ BR=5 IKR=11m NC=2 ISC=0 VAR=10 RB=20 RE=0.1 RC=0.1
+ CJC=4.5p VJC=0.75 MJC=0.33 CJE=10p VJE=0.75 MJE=0.33
+ TF=0.4n TR=120n XTB=1.5 EG=1.11 XTI=3)
